# generated using pymatgen
data_ZnH16(C2N)4
_symmetry_space_group_name_H-M   'P 1'
_cell_length_a   14.71463764
_cell_length_b   14.71463764
_cell_length_c   14.71463764
_cell_angle_alpha   109.47122063
_cell_angle_beta   109.47122063
_cell_angle_gamma   109.47122063
_symmetry_Int_Tables_number   1
_chemical_formula_structural   ZnH16(C2N)4
_chemical_formula_sum   'Zn6 H96 C48 N24'
_cell_volume   2452.60056514
_cell_formula_units_Z   6
loop_
 _symmetry_equiv_pos_site_id
 _symmetry_equiv_pos_as_xyz
  1  'x, y, z'
loop_
 _atom_site_type_symbol
 _atom_site_label
 _atom_site_symmetry_multiplicity
 _atom_site_fract_x
 _atom_site_fract_y
 _atom_site_fract_z
 _atom_site_occupancy
  C  C0  1  0.26765000  0.68101000  0.21164000  1.0
  C  C1  1  0.73235000  0.94399000  0.41336000  1.0
  C  C2  1  0.53063000  0.31899000  0.58664000  1.0
  C  C3  1  0.46937000  0.05601000  0.78836000  1.0
  C  C4  1  0.05601000  0.78836000  0.46937000  1.0
  C  C5  1  0.31899000  0.58664000  0.53063000  1.0
  C  C6  1  0.94399000  0.41336000  0.73235000  1.0
  C  C7  1  0.68101000  0.21164000  0.26765000  1.0
  C  C8  1  0.58664000  0.53063000  0.31899000  1.0
  C  C9  1  0.78836000  0.46937000  0.05601000  1.0
  C  C10  1  0.21164000  0.26765000  0.68101000  1.0
  C  C11  1  0.41336000  0.73235000  0.94399000  1.0
  C  C12  1  0.26765000  0.21164000  0.68101000  1.0
  C  C13  1  0.73235000  0.41336000  0.94399000  1.0
  C  C14  1  0.53063000  0.58664000  0.31899000  1.0
  C  C15  1  0.46937000  0.78836000  0.05601000  1.0
  C  C16  1  0.05601000  0.46937000  0.78836000  1.0
  C  C17  1  0.31899000  0.53063000  0.58664000  1.0
  C  C18  1  0.94399000  0.73235000  0.41336000  1.0
  C  C19  1  0.68101000  0.26765000  0.21164000  1.0
  C  C20  1  0.58664000  0.31899000  0.53063000  1.0
  C  C21  1  0.78836000  0.05601000  0.46937000  1.0
  C  C22  1  0.21164000  0.68101000  0.26765000  1.0
  C  C23  1  0.41336000  0.94399000  0.73235000  1.0
  C  C24  1  0.38495000  0.75410000  0.38495000  1.0
  C  C25  1  0.49160000  0.81220000  0.49160000  1.0
  C  C26  1  0.61505000  0.00000000  0.36915000  1.0
  C  C27  1  0.50840000  0.00000000  0.32060000  1.0
  C  C28  1  0.63085000  0.24590000  0.63085000  1.0
  C  C29  1  0.67940000  0.18780000  0.67940000  1.0
  C  C30  1  0.36915000  0.00000000  0.61505000  1.0
  C  C31  1  0.32060000  1.00000000  0.50840000  1.0
  C  C32  1  1.00000000  0.61505000  0.36915000  1.0
  C  C33  1  1.00000000  0.50840000  0.32060000  1.0
  C  C34  1  0.24590000  0.63085000  0.63085000  1.0
  C  C35  1  0.18780000  0.67940000  0.67940000  1.0
  C  C36  1  0.00000000  0.36915000  0.61505000  1.0
  C  C37  1  1.00000000  0.32060000  0.50840000  1.0
  C  C38  1  0.75410000  0.38495000  0.38495000  1.0
  C  C39  1  0.81220000  0.49160000  0.49160000  1.0
  C  C40  1  0.63085000  0.63085000  0.24590000  1.0
  C  C41  1  0.67940000  0.67940000  0.18780000  1.0
  C  C42  1  0.61505000  0.36915000  0.00000000  1.0
  C  C43  1  0.50840000  0.32060000  1.00000000  1.0
  C  C44  1  0.38495000  0.38495000  0.75410000  1.0
  C  C45  1  0.49160000  0.49160000  0.81220000  1.0
  C  C46  1  0.36915000  0.61505000  1.00000000  1.0
  C  C47  1  0.32060000  0.50840000  1.00000000  1.0
  H  H48  1  0.23660000  0.65430000  0.13550000  1.0
  H  H49  1  0.53850000  0.88440000  0.50550000  1.0
  H  H50  1  0.52860000  0.76940000  0.48640000  1.0
  H  H51  1  0.47630000  0.81990000  0.55140000  1.0
  H  H52  1  0.76340000  0.89890000  0.41770000  1.0
  H  H53  1  0.46150000  0.96700000  0.34590000  1.0
  H  H54  1  0.47140000  0.95780000  0.24080000  1.0
  H  H55  1  0.52370000  0.07510000  0.34360000  1.0
  H  H56  1  0.48120000  0.34570000  0.58230000  1.0
  H  H57  1  0.62110000  0.11560000  0.65410000  1.0
  H  H58  1  0.71700000  0.23060000  0.75920000  1.0
  H  H59  1  0.73150000  0.18010000  0.65640000  1.0
  H  H60  1  0.51880000  0.10110000  0.86450000  1.0
  H  H61  1  0.37890000  0.03300000  0.49450000  1.0
  H  H62  1  0.28300000  0.04220000  0.51360000  1.0
  H  H63  1  0.26850000  0.92490000  0.44860000  1.0
  H  H64  1  0.10110000  0.86450000  0.51880000  1.0
  H  H65  1  0.03300000  0.49450000  0.37890000  1.0
  H  H66  1  0.04220000  0.51360000  0.28300000  1.0
  H  H67  1  0.92490000  0.44860000  0.26850000  1.0
  H  H68  1  0.34570000  0.58230000  0.48120000  1.0
  H  H69  1  0.11560000  0.65410000  0.62110000  1.0
  H  H70  1  0.23060000  0.75920000  0.71700000  1.0
  H  H71  1  0.18010000  0.65640000  0.73150000  1.0
  H  H72  1  0.89890000  0.41770000  0.76340000  1.0
  H  H73  1  0.96700000  0.34590000  0.46150000  1.0
  H  H74  1  0.95780000  0.24080000  0.47140000  1.0
  H  H75  1  0.07510000  0.34360000  0.52370000  1.0
  H  H76  1  0.65430000  0.13550000  0.23660000  1.0
  H  H77  1  0.88440000  0.50550000  0.53850000  1.0
  H  H78  1  0.76940000  0.48640000  0.52860000  1.0
  H  H79  1  0.81990000  0.55140000  0.47630000  1.0
  H  H80  1  0.58230000  0.48120000  0.34570000  1.0
  H  H81  1  0.65410000  0.62110000  0.11560000  1.0
  H  H82  1  0.75920000  0.71700000  0.23060000  1.0
  H  H83  1  0.65640000  0.73150000  0.18010000  1.0
  H  H84  1  0.86450000  0.51880000  0.10110000  1.0
  H  H85  1  0.49450000  0.37890000  0.03300000  1.0
  H  H86  1  0.51360000  0.28300000  0.04220000  1.0
  H  H87  1  0.44860000  0.26850000  0.92490000  1.0
  H  H88  1  0.13550000  0.23660000  0.65430000  1.0
  H  H89  1  0.50550000  0.53850000  0.88440000  1.0
  H  H90  1  0.48640000  0.52860000  0.76940000  1.0
  H  H91  1  0.55140000  0.47630000  0.81990000  1.0
  H  H92  1  0.41770000  0.76340000  0.89890000  1.0
  H  H93  1  0.34590000  0.46150000  0.96700000  1.0
  H  H94  1  0.24080000  0.47140000  0.95780000  1.0
  H  H95  1  0.34360000  0.52370000  0.07510000  1.0
  H  H96  1  0.23660000  0.13550000  0.65430000  1.0
  H  H97  1  0.53850000  0.50550000  0.88440000  1.0
  H  H98  1  0.52860000  0.48640000  0.76940000  1.0
  H  H99  1  0.47630000  0.55140000  0.81990000  1.0
  H  H100  1  0.76340000  0.41770000  0.89890000  1.0
  H  H101  1  0.46150000  0.34590000  0.96700000  1.0
  H  H102  1  0.47140000  0.24080000  0.95780000  1.0
  H  H103  1  0.52370000  0.34360000  0.07510000  1.0
  H  H104  1  0.48120000  0.58230000  0.34570000  1.0
  H  H105  1  0.62110000  0.65410000  0.11560000  1.0
  H  H106  1  0.71700000  0.75920000  0.23060000  1.0
  H  H107  1  0.73150000  0.65640000  0.18010000  1.0
  H  H108  1  0.51880000  0.86450000  0.10110000  1.0
  H  H109  1  0.37890000  0.49450000  0.03300000  1.0
  H  H110  1  0.28300000  0.51360000  0.04220000  1.0
  H  H111  1  0.26850000  0.44860000  0.92490000  1.0
  H  H112  1  0.10110000  0.51880000  0.86450000  1.0
  H  H113  1  0.03300000  0.37890000  0.49450000  1.0
  H  H114  1  0.04220000  0.28300000  0.51360000  1.0
  H  H115  1  0.92490000  0.26850000  0.44860000  1.0
  H  H116  1  0.34570000  0.48120000  0.58230000  1.0
  H  H117  1  0.11560000  0.62110000  0.65410000  1.0
  H  H118  1  0.23060000  0.71700000  0.75920000  1.0
  H  H119  1  0.18010000  0.73150000  0.65640000  1.0
  H  H120  1  0.89890000  0.76340000  0.41770000  1.0
  H  H121  1  0.96700000  0.46150000  0.34590000  1.0
  H  H122  1  0.95780000  0.47140000  0.24080000  1.0
  H  H123  1  0.07510000  0.52370000  0.34360000  1.0
  H  H124  1  0.65430000  0.23660000  0.13550000  1.0
  H  H125  1  0.88440000  0.53850000  0.50550000  1.0
  H  H126  1  0.76940000  0.52860000  0.48640000  1.0
  H  H127  1  0.81990000  0.47630000  0.55140000  1.0
  H  H128  1  0.58230000  0.34570000  0.48120000  1.0
  H  H129  1  0.65410000  0.11560000  0.62110000  1.0
  H  H130  1  0.75920000  0.23060000  0.71700000  1.0
  H  H131  1  0.65640000  0.18010000  0.73150000  1.0
  H  H132  1  0.86450000  0.10110000  0.51880000  1.0
  H  H133  1  0.49450000  0.03300000  0.37890000  1.0
  H  H134  1  0.51360000  0.04220000  0.28300000  1.0
  H  H135  1  0.44860000  0.92490000  0.26850000  1.0
  H  H136  1  0.13550000  0.65430000  0.23660000  1.0
  H  H137  1  0.50550000  0.88440000  0.53850000  1.0
  H  H138  1  0.48640000  0.76940000  0.52860000  1.0
  H  H139  1  0.55140000  0.81990000  0.47630000  1.0
  H  H140  1  0.41770000  0.89890000  0.76340000  1.0
  H  H141  1  0.34590000  0.96700000  0.46150000  1.0
  H  H142  1  0.24080000  0.95780000  0.47140000  1.0
  H  H143  1  0.34360000  0.07510000  0.52370000  1.0
  N  N144  1  0.37805000  0.72695000  0.28554000  1.0
  N  N145  1  0.62195000  0.90749000  0.34890000  1.0
  N  N146  1  0.55859000  0.27305000  0.65110000  1.0
  N  N147  1  0.44141000  0.09251000  0.71446000  1.0
  N  N148  1  0.09251000  0.71446000  0.44141000  1.0
  N  N149  1  0.27305000  0.65110000  0.55859000  1.0
  N  N150  1  0.90749000  0.34890000  0.62195000  1.0
  N  N151  1  0.72695000  0.28554000  0.37805000  1.0
  N  N152  1  0.65110000  0.55859000  0.27305000  1.0
  N  N153  1  0.71446000  0.44141000  0.09251000  1.0
  N  N154  1  0.28554000  0.37805000  0.72695000  1.0
  N  N155  1  0.34890000  0.62195000  0.90749000  1.0
  N  N156  1  0.37805000  0.28554000  0.72695000  1.0
  N  N157  1  0.62195000  0.34890000  0.90749000  1.0
  N  N158  1  0.55859000  0.65110000  0.27305000  1.0
  N  N159  1  0.44141000  0.71446000  0.09251000  1.0
  N  N160  1  0.09251000  0.44141000  0.71446000  1.0
  N  N161  1  0.27305000  0.55859000  0.65110000  1.0
  N  N162  1  0.90749000  0.62195000  0.34890000  1.0
  N  N163  1  0.72695000  0.37805000  0.28554000  1.0
  N  N164  1  0.65110000  0.27305000  0.55859000  1.0
  N  N165  1  0.71446000  0.09251000  0.44141000  1.0
  N  N166  1  0.28554000  0.72695000  0.37805000  1.0
  N  N167  1  0.34890000  0.90749000  0.62195000  1.0
  Zn  Zn168  1  0.50000000  0.75000000  0.25000000  1.0
  Zn  Zn169  1  0.50000000  0.25000000  0.75000000  1.0
  Zn  Zn170  1  0.25000000  0.75000000  0.50000000  1.0
  Zn  Zn171  1  0.75000000  0.25000000  0.50000000  1.0
  Zn  Zn172  1  0.75000000  0.50000000  0.25000000  1.0
  Zn  Zn173  1  0.25000000  0.50000000  0.75000000  1.0
