# generated using pymatgen
data_ZnH6(C3N2)2
_symmetry_space_group_name_H-M   'P 1'
_cell_length_a   14.73630000
_cell_length_b   14.75476164
_cell_length_c   14.76400000
_cell_angle_alpha   109.36272622
_cell_angle_beta   109.46920000
_cell_angle_gamma   109.46479096
_symmetry_Int_Tables_number   1
_chemical_formula_structural   ZnH6(C3N2)2
_chemical_formula_sum   'Zn6 H36 C36 N24'
_cell_volume   2474.72904806
_cell_formula_units_Z   6
loop_
 _symmetry_equiv_pos_site_id
 _symmetry_equiv_pos_as_xyz
  1  'x, y, z'
loop_
 _atom_site_type_symbol
 _atom_site_label
 _atom_site_symmetry_multiplicity
 _atom_site_fract_x
 _atom_site_fract_y
 _atom_site_fract_z
 _atom_site_occupancy
  Zn  Zn0  1  0.50017000  0.24926000  0.75081000  1.0
  Zn  Zn1  1  0.50009000  0.75075000  0.24935000  1.0
  Zn  Zn2  1  0.24995000  0.74990000  0.50028000  1.0
  Zn  Zn3  1  0.74984000  0.24956000  0.49985000  1.0
  Zn  Zn4  1  0.24998000  0.50059000  0.75014000  1.0
  Zn  Zn5  1  0.74961000  0.49954000  0.24904000  1.0
  H  H6  1  0.52556000  0.11300000  0.88622000  1.0
  H  H7  1  0.45154000  0.33034000  0.56728000  1.0
  H  H8  1  0.77369000  0.88542000  0.39112000  1.0
  H  H9  1  0.24108000  0.68771000  0.12610000  1.0
  H  H10  1  0.36257000  0.59023000  0.47588000  1.0
  H  H11  1  0.11481000  0.88014000  0.54437000  1.0
  H  H12  1  0.66390000  0.11893000  0.23456000  1.0
  H  H13  1  0.88468000  0.43194000  0.76616000  1.0
  H  H14  1  0.12522000  0.23983000  0.68681000  1.0
  H  H15  1  0.41136000  0.77191000  0.88440000  1.0
  H  H16  1  0.56675000  0.45204000  0.32997000  1.0
  H  H17  1  0.88783000  0.50676000  0.11457000  1.0
  H  H18  1  0.45113000  0.56640000  0.32968000  1.0
  H  H19  1  0.52496000  0.88667000  0.11373000  1.0
  H  H20  1  0.24126000  0.12577000  0.68727000  1.0
  H  H21  1  0.77361000  0.39061000  0.88561000  1.0
  H  H22  1  0.66345000  0.23351000  0.11902000  1.0
  H  H23  1  0.88472000  0.76625000  0.43043000  1.0
  H  H24  1  0.36212000  0.47525000  0.59048000  1.0
  H  H25  1  0.11479000  0.54564000  0.88023000  1.0
  H  H26  1  0.88789000  0.11445000  0.50613000  1.0
  H  H27  1  0.56725000  0.33114000  0.45304000  1.0
  H  H28  1  0.41202000  0.88363000  0.77118000  1.0
  H  H29  1  0.12561000  0.68841000  0.24070000  1.0
  H  H30  1  0.34756000  0.99937000  0.54638000  1.0
  H  H31  1  0.65850000  0.20138000  0.65909000  1.0
  H  H32  1  0.54567000  0.99924000  0.36375000  1.0
  H  H33  1  0.45298000  0.78308000  0.45330000  1.0
  H  H34  1  0.18885000  0.64358000  0.64367000  1.0
  H  H35  1  0.99874000  0.54467000  0.33912000  1.0
  H  H36  1  0.79017000  0.45365000  0.45330000  1.0
  H  H37  1  0.99888000  0.33912000  0.54523000  1.0
  H  H38  1  0.45303000  0.45340000  0.78326000  1.0
  H  H39  1  0.34796000  0.54651000  0.99966000  1.0
  H  H40  1  0.65882000  0.65957000  0.20185000  1.0
  H  H41  1  0.54564000  0.36405000  0.99945000  1.0
  C  C42  1  0.47118000  0.05560000  0.79878000  1.0
  C  C43  1  0.51251000  0.30489000  0.57036000  1.0
  C  C44  1  0.74311000  0.94284000  0.40180000  1.0
  C  C45  1  0.26760000  0.70662000  0.21065000  1.0
  C  C46  1  0.32725000  0.58520000  0.52841000  1.0
  C  C47  1  0.05662000  0.79390000  0.48416000  1.0
  C  C48  1  0.68903000  0.20509000  0.26256000  1.0
  C  C49  1  0.94239000  0.42860000  0.73743000  1.0
  C  C50  1  0.21006000  0.26704000  0.70581000  1.0
  C  C51  1  0.41424000  0.74217000  0.94220000  1.0
  C  C52  1  0.56952000  0.51283000  0.30441000  1.0
  C  C53  1  0.79988000  0.45937000  0.05692000  1.0
  C  C54  1  0.51219000  0.56972000  0.30434000  1.0
  C  C55  1  0.47079000  0.79919000  0.05616000  1.0
  C  C56  1  0.26762000  0.21032000  0.70605000  1.0
  C  C57  1  0.74304000  0.40165000  0.94300000  1.0
  C  C58  1  0.68885000  0.26199000  0.20523000  1.0
  C  C59  1  0.94237000  0.73733000  0.42742000  1.0
  C  C60  1  0.32707000  0.52801000  0.58543000  1.0
  C  C61  1  0.05663000  0.48522000  0.79406000  1.0
  C  C62  1  0.79993000  0.05682000  0.45902000  1.0
  C  C63  1  0.56986000  0.30516000  0.51351000  1.0
  C  C64  1  0.41466000  0.94159000  0.74164000  1.0
  C  C65  1  0.21026000  0.70683000  0.26755000  1.0
  C  C66  1  0.37952000  0.99916000  0.62340000  1.0
  C  C67  1  0.61909000  0.23810000  0.61976000  1.0
  C  C68  1  0.62330000  0.99955000  0.38591000  1.0
  C  C69  1  0.37912000  0.75568000  0.37940000  1.0
  C  C70  1  0.23741000  0.61470000  0.61480000  1.0
  C  C71  1  0.99901000  0.62082000  0.37819000  1.0
  C  C72  1  0.75434000  0.37782000  0.37772000  1.0
  C  C73  1  0.99912000  0.37854000  0.62125000  1.0
  C  C74  1  0.37912000  0.37935000  0.75556000  1.0
  C  C75  1  0.37963000  0.62360000  0.99948000  1.0
  C  C76  1  0.61913000  0.61978000  0.23812000  1.0
  C  C77  1  0.62320000  0.38608000  0.99965000  1.0
  N  N78  1  0.44870000  0.09196000  0.72342000  1.0
  N  N79  1  0.54401000  0.26235000  0.63784000  1.0
  N  N80  1  0.63091000  0.90666000  0.35549000  1.0
  N  N81  1  0.37480000  0.73759000  0.28191000  1.0
  N  N82  1  0.27019000  0.64020000  0.54716000  1.0
  N  N83  1  0.09235000  0.71967000  0.45267000  1.0
  N  N84  1  0.73061000  0.27890000  0.37207000  1.0
  N  N85  1  0.90613000  0.36084000  0.62768000  1.0
  N  N86  1  0.28112000  0.37440000  0.73722000  1.0
  N  N87  1  0.35638000  0.63062000  0.90642000  1.0
  N  N88  1  0.63743000  0.54486000  0.26240000  1.0
  N  N89  1  0.72356000  0.44935000  0.09270000  1.0
  N  N90  1  0.54392000  0.63764000  0.26228000  1.0
  N  N91  1  0.44863000  0.72360000  0.09231000  1.0
  N  N92  1  0.37494000  0.28188000  0.73757000  1.0
  N  N93  1  0.63082000  0.35525000  0.90682000  1.0
  N  N94  1  0.73033000  0.37168000  0.27863000  1.0
  N  N95  1  0.90605000  0.62739000  0.36014000  1.0
  N  N96  1  0.26996000  0.54691000  0.64027000  1.0
  N  N97  1  0.09242000  0.45319000  0.72005000  1.0
  N  N98  1  0.72363000  0.09270000  0.44885000  1.0
  N  N99  1  0.63755000  0.26279000  0.54514000  1.0
  N  N100  1  0.35648000  0.90598000  0.63025000  1.0
  N  N101  1  0.28133000  0.73790000  0.37469000  1.0
